18U
     RDKit          3D

 31 32  0  0  0  0  0  0  0  0999 V2000
    2.0569    0.5548   -1.0957 C   0  0  0  0  0  0  0  0  0  0  0  0
    3.4431    0.5468   -1.3016 C   0  0  0  0  0  0  0  0  0  0  0  0
    4.2858   -0.2885   -0.5492 C   0  0  0  0  0  0  0  0  0  0  0  0
    3.6983   -1.0950    0.4383 C   0  0  0  0  0  0  0  0  0  0  0  0
    2.3143   -1.0900    0.6468 C   0  0  0  0  0  0  0  0  0  0  0  0
    1.4763   -0.2848   -0.1370 C   0  0  0  0  0  0  0  0  0  0  0  0
   -0.0214   -0.3371    0.0449 C   0  0  0  0  0  0  0  0  0  0  0  0
   -0.5177    0.6836    0.9756 N   0  0  0  0  0  0  0  0  0  0  0  0
   -1.9412    0.3067    1.7802 S   0  0  0  0  0  0  0  0  0  0  0  0
   -2.3904    1.4401    2.5592 O   0  0  0  0  0  0  0  0  0  0  0  0
   -1.7574   -0.9846    2.4211 O   0  0  0  0  0  0  0  0  0  0  0  0
   -3.2417    0.0140    0.6560 C   0  0  0  0  0  0  0  0  0  0  0  0
   -4.0479   -1.1723    0.7103 C   0  0  0  0  0  0  0  0  0  0  0  0
   -5.0397   -1.1759   -0.2434 C   0  0  0  0  0  0  0  0  0  0  0  0
   -5.0153    0.2430   -1.1939 S   0  0  0  0  0  0  0  0  0  0  0  0
   -3.6627    0.8661   -0.3480 C   0  0  0  0  0  0  0  0  0  0  0  0
   -2.9999    2.2505   -0.7071 C   0  0  0  0  0  0  0  0  0  0  0  0
   -1.7687    2.3651   -0.4233 O   0  0  0  0  0  0  0  0  0  0  0  0
   -3.7328    3.1097   -1.2781 O   0  0  0  0  0  0  0  0  0  0  0  0
    5.7840   -0.3236   -0.7949 C   0  0  0  0  0  0  0  0  0  0  0  0
    6.4773   -1.1093   -0.0702 O   0  0  0  0  0  0  0  0  0  0  0  0
    6.2465    0.4240   -1.7160 O   0  0  0  0  0  0  0  0  0  0  0  0
    1.4334    1.2166   -1.6930 H   0  0  0  0  0  0  0  0  0  0  0  0
    3.8800    1.1952   -2.0593 H   0  0  0  0  0  0  0  0  0  0  0  0
    4.3350   -1.7358    1.0454 H   0  0  0  0  0  0  0  0  0  0  0  0
    1.8939   -1.7260    1.4213 H   0  0  0  0  0  0  0  0  0  0  0  0
   -0.5074   -0.2085   -0.9299 H   0  0  0  0  0  0  0  0  0  0  0  0
   -0.2819   -1.3458    0.3860 H   0  0  0  0  0  0  0  0  0  0  0  0
   -0.7116    1.5734    0.4563 H   0  0  0  0  0  0  0  0  0  0  0  0
   -3.9031   -1.9748    1.4236 H   0  0  0  0  0  0  0  0  0  0  0  0
   -5.7840   -1.9376   -0.4243 H   0  0  0  0  0  0  0  0  0  0  0  0
  1  2  2  0
  2  3  1  0
  3  4  2  0
  4  5  1  0
  5  6  2  0
  6  7  1  0
  7  8  1  0
  8  9  1  0
  9 10  2  0
  9 11  2  0
  9 12  1  0
 12 13  1  0
 13 14  2  0
 14 15  1  0
 15 16  1  0
 16 17  1  0
 17 18  2  0
 17 19  1  0
  3 20  1  0
 20 21  2  0
 20 22  1  0
  6  1  1  0
 16 12  2  0
  1 23  1  0
  2 24  1  0
  4 25  1  0
  5 26  1  0
  7 27  1  0
  7 28  1  0
  8 29  1  0
 13 30  1  0
 14 31  1  0
M  CHG  2  19  -1  22  -1
M  END
>  <smiles_neutral>  (1) 
c1cc(ccc1CNS(=O)(=O)c2ccsc2C(=O)O)C(=O)O

>  <smiles_docked>  (1) 
c1cc(ccc1CNS(=O)(=O)c2ccsc2C(=O)[O-])C(=O)[O-]

>  <formal_charge>  (1) 
-2

>  <ki>  (1) 
18 uM

>  <pdb_entry>  (1) 
4JXS

>  <embed_seed>  (1) 
42

>  <force_field>  (1) 
MMFF94s

>  <rdkit_version>  (1) 
2026.03.5

>  <python_version>  (1) 
3.12.10

>  <platform>  (1) 
Windows-11-10.0.26200-SP0

$$$$
