1MU
     RDKit          3D

 34 35  0  0  0  0  0  0  0  0999 V2000
    2.4156   -2.0593   -0.3122 C   0  0  0  0  0  0  0  0  0  0  0  0
    3.4723   -2.1398   -1.2240 C   0  0  0  0  0  0  0  0  0  0  0  0
    4.3028   -1.0358   -1.4692 C   0  0  0  0  0  0  0  0  0  0  0  0
    4.0342    0.1568   -0.7781 C   0  0  0  0  0  0  0  0  0  0  0  0
    2.9770    0.2421    0.1357 C   0  0  0  0  0  0  0  0  0  0  0  0
    2.1630   -0.8692    0.3828 C   0  0  0  0  0  0  0  0  0  0  0  0
    1.0294   -0.7947    1.3738 C   0  0  0  0  0  0  0  0  0  0  0  0
   -0.2157   -0.1050    0.8060 C   0  0  0  0  0  0  0  0  0  0  0  0
   -1.3690   -0.4559    1.6489 N   0  0  0  0  0  0  0  0  0  0  0  0
   -2.6070    0.6768    1.8958 S   0  0  0  0  0  0  0  0  0  0  0  0
   -3.5605   -0.0497    2.7056 O   0  0  0  0  0  0  0  0  0  0  0  0
   -1.9508    1.9095    2.2621 O   0  0  0  0  0  0  0  0  0  0  0  0
   -3.4016    0.9435    0.3734 C   0  0  0  0  0  0  0  0  0  0  0  0
   -3.2684    0.0580   -0.7476 C   0  0  0  0  0  0  0  0  0  0  0  0
   -3.9454    0.5120   -1.8575 C   0  0  0  0  0  0  0  0  0  0  0  0
   -4.7646    1.9783   -1.5499 S   0  0  0  0  0  0  0  0  0  0  0  0
   -4.2423    1.9998    0.0797 C   0  0  0  0  0  0  0  0  0  0  0  0
   -4.7112    3.1008    1.1072 C   0  0  0  0  0  0  0  0  0  0  0  0
   -4.8537    2.7256    2.3068 O   0  0  0  0  0  0  0  0  0  0  0  0
   -4.9559    4.2518    0.6335 O   0  0  0  0  0  0  0  0  0  0  0  0
    5.4590   -1.1345   -2.4477 C   0  0  0  0  0  0  0  0  0  0  0  0
    5.6255   -2.2490   -3.0402 O   0  0  0  0  0  0  0  0  0  0  0  0
    6.1826   -0.0998   -2.6035 O   0  0  0  0  0  0  0  0  0  0  0  0
    1.8010   -2.9398   -0.1478 H   0  0  0  0  0  0  0  0  0  0  0  0
    3.6642   -3.0720   -1.7530 H   0  0  0  0  0  0  0  0  0  0  0  0
    4.6662    1.0252   -0.9586 H   0  0  0  0  0  0  0  0  0  0  0  0
    2.8047    1.1821    0.6542 H   0  0  0  0  0  0  0  0  0  0  0  0
    0.7793   -1.8118    1.7049 H   0  0  0  0  0  0  0  0  0  0  0  0
    1.3662   -0.2721    2.2786 H   0  0  0  0  0  0  0  0  0  0  0  0
   -0.0523    0.9767    0.7709 H   0  0  0  0  0  0  0  0  0  0  0  0
   -0.4090   -0.4512   -0.2146 H   0  0  0  0  0  0  0  0  0  0  0  0
   -1.7421   -1.3980    1.5712 H   0  0  0  0  0  0  0  0  0  0  0  0
   -2.6946   -0.8581   -0.7515 H   0  0  0  0  0  0  0  0  0  0  0  0
   -3.9991    0.0568   -2.8360 H   0  0  0  0  0  0  0  0  0  0  0  0
  1  2  2  0
  2  3  1  0
  3  4  2  0
  4  5  1  0
  5  6  2  0
  6  7  1  0
  7  8  1  0
  8  9  1  0
  9 10  1  0
 10 11  2  0
 10 12  2  0
 10 13  1  0
 13 14  1  0
 14 15  2  0
 15 16  1  0
 16 17  1  0
 17 18  1  0
 18 19  2  0
 18 20  1  0
  3 21  1  0
 21 22  2  0
 21 23  1  0
  6  1  1  0
 17 13  2  0
  1 24  1  0
  2 25  1  0
  4 26  1  0
  5 27  1  0
  7 28  1  0
  7 29  1  0
  8 30  1  0
  8 31  1  0
  9 32  1  0
 14 33  1  0
 15 34  1  0
M  CHG  2  20  -1  23  -1
M  END
>  <smiles_neutral>  (1) 
c1cc(ccc1CCNS(=O)(=O)c2ccsc2C(=O)O)C(=O)O

>  <smiles_docked>  (1) 
c1cc(ccc1CCNS(=O)(=O)c2ccsc2C(=O)[O-])C(=O)[O-]

>  <formal_charge>  (1) 
-2

>  <ki>  (1) 
26 uM (ChEMBL) / 31 uM (PDBbind)

>  <pdb_entry>  (1) 
4JXV

>  <embed_seed>  (1) 
42

>  <force_field>  (1) 
MMFF94s

>  <rdkit_version>  (1) 
2026.03.5

>  <python_version>  (1) 
3.12.10

>  <platform>  (1) 
Windows-11-10.0.26200-SP0

$$$$
