STC
     RDKit          3D

 26 27  0  0  0  0  0  0  0  0999 V2000
   -2.2486   -1.2192    0.9517 C   0  0  0  0  0  0  0  0  0  0  0  0
   -3.1695   -1.6586   -0.0043 C   0  0  0  0  0  0  0  0  0  0  0  0
   -3.2873   -0.9776   -1.2126 C   0  0  0  0  0  0  0  0  0  0  0  0
   -2.5011    0.1427   -1.4630 C   0  0  0  0  0  0  0  0  0  0  0  0
   -1.5823    0.5811   -0.5021 C   0  0  0  0  0  0  0  0  0  0  0  0
   -1.4242   -0.1158    0.6977 C   0  0  0  0  0  0  0  0  0  0  0  0
   -0.5569    0.2952    1.7515 N   0  0  0  0  0  0  0  0  0  0  0  0
    0.8581    1.1990    1.4902 S   0  0  0  0  0  0  0  0  0  0  0  0
    1.5558    1.0942    2.7548 O   0  0  0  0  0  0  0  0  0  0  0  0
    0.4549    2.4393    0.8711 O   0  0  0  0  0  0  0  0  0  0  0  0
    1.8398    0.3224    0.3546 C   0  0  0  0  0  0  0  0  0  0  0  0
    1.7454   -1.0967    0.1643 C   0  0  0  0  0  0  0  0  0  0  0  0
    2.5763   -1.5445   -0.8390 C   0  0  0  0  0  0  0  0  0  0  0  0
    3.4822   -0.2724   -1.5342 S   0  0  0  0  0  0  0  0  0  0  0  0
    2.7972    0.8743   -0.4698 C   0  0  0  0  0  0  0  0  0  0  0  0
    3.2438    2.3804   -0.4297 C   0  0  0  0  0  0  0  0  0  0  0  0
    3.4504    2.9375   -1.5483 O   0  0  0  0  0  0  0  0  0  0  0  0
    3.3925    2.8778    0.7239 O   0  0  0  0  0  0  0  0  0  0  0  0
   -4.4204   -1.5153   -2.3897 Cl  0  0  0  0  0  0  0  0  0  0  0  0
   -2.1815   -1.7511    1.8969 H   0  0  0  0  0  0  0  0  0  0  0  0
   -3.7927   -2.5235    0.2040 H   0  0  0  0  0  0  0  0  0  0  0  0
   -2.5954    0.6914   -2.3967 H   0  0  0  0  0  0  0  0  0  0  0  0
   -1.0057    1.4749   -0.7270 H   0  0  0  0  0  0  0  0  0  0  0  0
   -0.4210   -0.3261    2.5444 H   0  0  0  0  0  0  0  0  0  0  0  0
    1.0921   -1.7544    0.7206 H   0  0  0  0  0  0  0  0  0  0  0  0
    2.6980   -2.5546   -1.2025 H   0  0  0  0  0  0  0  0  0  0  0  0
  1  2  2  0
  2  3  1  0
  3  4  2  0
  4  5  1  0
  5  6  2  0
  6  7  1  0
  7  8  1  0
  8  9  2  0
  8 10  2  0
  8 11  1  0
 11 12  1  0
 12 13  2  0
 13 14  1  0
 14 15  1  0
 15 16  1  0
 16 17  2  0
 16 18  1  0
  3 19  1  0
  6  1  1  0
 15 11  2  0
  1 20  1  0
  2 21  1  0
  4 22  1  0
  5 23  1  0
  7 24  1  0
 12 25  1  0
 13 26  1  0
M  CHG  1  18  -1
M  END
>  <smiles_neutral>  (1) 
c1cc(ccc1NS(=O)(=O)c2ccsc2C(=O)O)Cl

>  <smiles_docked>  (1) 
c1cc(ccc1NS(=O)(=O)c2ccsc2C(=O)[O-])Cl

>  <formal_charge>  (1) 
-1

>  <ki>  (1) 
26 uM

>  <pdb_entry>  (1) 
1L2S

>  <embed_seed>  (1) 
42

>  <force_field>  (1) 
MMFF94s

>  <rdkit_version>  (1) 
2026.03.5

>  <python_version>  (1) 
3.12.10

>  <platform>  (1) 
Windows-11-10.0.26200-SP0

$$$$
